<?xml version="1.0" encoding="iso-8859-1"?>
<connections>

   <connection from="1si" to="3o"/>
   <connection from="1si" to="2o"/>
   <connection from="1si" to="4o"/>

   <connection from="2si" to="4o"/>
   <connection from="2si" to="3o"/>
   <connection from="2si" to="1o"/>

   <connection from="3si" to="4o"/>
   <connection from="3si" to="2o"/>
   <connection from="3si" to="1o"/>

   <connection from="4si" to="3o"/>
   <connection from="4si" to="2o"/>
   <connection from="4si" to="1o"/>

</connections>